#======================================================================

# CRYSTAL DATA

#----------------------------------------------------------------------

data_VESTA_phase_1


_chemical_name_common                  'Layer                                 '
_cell_length_a                         15.67600
_cell_length_b                         9.55930
_cell_length_c                         40.19930
_cell_angle_alpha                      90
_cell_angle_beta                       90
_cell_angle_gamma                      90
_space_group_name_H-M_alt              'P 1'
_space_group_IT_number                 1

loop_
_space_group_symop_operation_xyz
   'x, y, z'

loop_
   _atom_site_label
   _atom_site_occupancy
   _atom_site_fract_x
   _atom_site_fract_y
   _atom_site_fract_z
   _atom_site_adp_type
   _atom_site_B_iso_or_equiv
   _atom_site_type_symbol
   Ti1        1.0     0.125000      0.250000      0.146600     Biso  1.000000 Ti
   Ti2        1.0     0.125343      0.250849      0.239076     Biso  1.000000 Ti
   Ti3        1.0     0.000000      0.000000      0.146600     Biso  1.000000 Ti
   Ti4        1.0     0.000226     -0.003093      0.239198     Biso  1.000000 Ti
   Ti5        1.0     0.000000      0.750000      0.099500     Biso  1.000000 Ti
   Ti6        1.0     0.000238      0.745986      0.198711     Biso  1.000000 Ti
   Ti7        1.0     0.125000      0.500000      0.099500     Biso  1.000000 Ti
   Ti8        1.0     0.125233      0.502240      0.198607     Biso  1.000000 Ti
   Ti9        1.0     0.375000      0.250000      0.146600     Biso  1.000000 Ti
   Ti10       1.0     0.374799      0.250014      0.239461     Biso  1.000000 Ti
   Ti11       1.0     0.250000      0.000000      0.146600     Biso  1.000000 Ti
   Ti12       1.0     0.250633     -0.004869      0.238988     Biso  1.000000 Ti
   Ti13       1.0     0.250000      0.750000      0.099500     Biso  1.000000 Ti
   Ti14       1.0     0.250734      0.745081      0.198150     Biso  1.000000 Ti
   Ti15       1.0     0.375000      0.500000      0.099500     Biso  1.000000 Ti
   Ti16       1.0     0.375420      0.500938      0.199077     Biso  1.000000 Ti
   Ti17       1.0     0.625000      0.250000      0.146600     Biso  1.000000 Ti
   Ti18       1.0     0.625343      0.250849      0.239076     Biso  1.000000 Ti
   Ti19       1.0     0.500000      0.000000      0.146600     Biso  1.000000 Ti
   Ti20       1.0     0.500226     -0.003093      0.239198     Biso  1.000000 Ti
   Ti21       1.0     0.500000      0.750000      0.099500     Biso  1.000000 Ti
   Ti22       1.0     0.500238      0.745986      0.198711     Biso  1.000000 Ti
   Ti23       1.0     0.625000      0.500000      0.099500     Biso  1.000000 Ti
   Ti24       1.0     0.625233      0.502240      0.198607     Biso  1.000000 Ti
   Ti25       1.0     0.875000      0.250000      0.146600     Biso  1.000000 Ti
   Ti26       1.0     0.874799      0.250014      0.239461     Biso  1.000000 Ti
   Ti27       1.0     0.750000      0.000000      0.146600     Biso  1.000000 Ti
   Ti28       1.0     0.750633     -0.004869      0.238988     Biso  1.000000 Ti
   Ti29       1.0     0.750000      0.750000      0.099500     Biso  1.000000 Ti
   Ti30       1.0     0.750734      0.745081      0.198150     Biso  1.000000 Ti
   Ti31       1.0     0.875000      0.500000      0.099500     Biso  1.000000 Ti
   Ti32       1.0     0.875420      0.500938      0.199077     Biso  1.000000 Ti
   O1         1.0     0.125000      0.456130      0.146600     Biso  1.000000 O
   O2         1.0     0.125823      0.445328      0.243600     Biso  1.000000 O
   O3         1.0     0.125000      0.293870      0.099500     Biso  1.000000 O
   O4         1.0     0.123548      0.287684      0.194939     Biso  1.000000 O
   O5         1.0     0.125000      0.043870      0.146600     Biso  1.000000 O
   O6         1.0     0.125435      0.037267      0.246600     Biso  1.000000 O
   O7         1.0     0.000000      0.206130      0.146600     Biso  1.000000 O
   O8         1.0     0.000274      0.208762      0.245946     Biso  1.000000 O
   O9         1.0     0.000000      0.956130      0.099500     Biso  1.000000 O
   O10        1.0    -0.000326      0.961197      0.195011     Biso  1.000000 O
   O11        1.0     0.000000      0.793870      0.146600     Biso  1.000000 O
   O12        1.0     0.000699      0.802365      0.243507     Biso  1.000000 O
   O13        1.0     0.000000      0.543870      0.099500     Biso  1.000000 O
   O14        1.0     0.000194      0.539891      0.197238     Biso  1.000000 O
   O15        1.0     0.125000      0.706130      0.099500     Biso  1.000000 O
   O16        1.0     0.125119      0.707199      0.196570     Biso  1.000000 O
   O17        1.0     0.375000      0.456130      0.146600     Biso  1.000000 O
   O18        1.0     0.374540      0.444133      0.244115     Biso  1.000000 O
   O19        1.0     0.375000      0.293870      0.099500     Biso  1.000000 O
   O20        1.0     0.376941      0.287781      0.195158     Biso  1.000000 O
   O21        1.0     0.375000      0.043870      0.146600     Biso  1.000000 O
   O22        1.0     0.375532      0.036334      0.247284     Biso  1.000000 O
   O23        1.0     0.250000      0.206130      0.146600     Biso  1.000000 O
   O24        1.0     0.250695      0.207002      0.243463     Biso  1.000000 O
   O25        1.0     0.250000      0.956130      0.099500     Biso  1.000000 O
   O26        1.0     0.250727      0.960831      0.194794     Biso  1.000000 O
   O27        1.0     0.250000      0.793870      0.146600     Biso  1.000000 O
   O28        1.0     0.251047      0.800280      0.242696     Biso  1.000000 O
   O29        1.0     0.250000      0.543870      0.099500     Biso  1.000000 O
   O30        1.0     0.250396      0.539084      0.196783     Biso  1.000000 O
   O31        1.0     0.375000      0.706130      0.099500     Biso  1.000000 O
   O32        1.0     0.375578      0.706848      0.196640     Biso  1.000000 O
   O33        1.0     0.625000      0.456130      0.146600     Biso  1.000000 O
   O34        1.0     0.625823      0.445328      0.243600     Biso  1.000000 O
   O35        1.0     0.625000      0.293870      0.099500     Biso  1.000000 O
   O36        1.0     0.623548      0.287684      0.194939     Biso  1.000000 O
   O37        1.0     0.625000      0.043870      0.146600     Biso  1.000000 O
   O38        1.0     0.625435      0.037267      0.246600     Biso  1.000000 O
   O39        1.0     0.500000      0.206130      0.146600     Biso  1.000000 O
   O40        1.0     0.500274      0.208762      0.245946     Biso  1.000000 O
   O41        1.0     0.500000      0.956130      0.099500     Biso  1.000000 O
   O42        1.0     0.499674      0.961197      0.195011     Biso  1.000000 O
   O43        1.0     0.500000      0.793870      0.146600     Biso  1.000000 O
   O44        1.0     0.500699      0.802365      0.243507     Biso  1.000000 O
   O45        1.0     0.500000      0.543870      0.099500     Biso  1.000000 O
   O46        1.0     0.500194      0.539891      0.197238     Biso  1.000000 O
   O47        1.0     0.625000      0.706130      0.099500     Biso  1.000000 O
   O48        1.0     0.625119      0.707199      0.196570     Biso  1.000000 O
   O49        1.0     0.875000      0.456130      0.146600     Biso  1.000000 O
   O50        1.0     0.874540      0.444133      0.244115     Biso  1.000000 O
   O51        1.0     0.875000      0.293870      0.099500     Biso  1.000000 O
   O52        1.0     0.876941      0.287781      0.195158     Biso  1.000000 O
   O53        1.0     0.875000      0.043870      0.146600     Biso  1.000000 O
   O54        1.0     0.875532      0.036334      0.247284     Biso  1.000000 O
   O55        1.0     0.750000      0.206130      0.146600     Biso  1.000000 O
   O56        1.0     0.750695      0.207002      0.243463     Biso  1.000000 O
   O57        1.0     0.750000      0.956130      0.099500     Biso  1.000000 O
   O58        1.0     0.750727      0.960831      0.194794     Biso  1.000000 O
   O59        1.0     0.750000      0.793870      0.146600     Biso  1.000000 O
   O60        1.0     0.751047      0.800280      0.242696     Biso  1.000000 O
   O61        1.0     0.750000      0.543870      0.099500     Biso  1.000000 O
   O62        1.0     0.750396      0.539084      0.196783     Biso  1.000000 O
   O63        1.0     0.875000      0.706130      0.099500     Biso  1.000000 O
   O64        1.0     0.875578      0.706848      0.196640     Biso  1.000000 O
   C1         1.0     0.029356      0.530413      0.326343     Biso  1.000000 C
   C2         1.0     0.042197      0.022685      0.336321     Biso  1.000000 C
   C3         1.0     0.529356      0.530413      0.326343     Biso  1.000000 C
   C4         1.0     0.542197      0.022685      0.336321     Biso  1.000000 C
   C5         1.0     0.291892      0.036933      0.327996     Biso  1.000000 C
   C6         1.0     0.280180      0.532380      0.331803     Biso  1.000000 C
   C7         1.0     0.791892      0.036933      0.327996     Biso  1.000000 C
   C8         1.0     0.780180      0.532380      0.331803     Biso  1.000000 C
   C9         1.0     0.151800      0.154574      0.315852     Biso  1.000000 C
   C10        1.0     0.147658      0.658232      0.315905     Biso  1.000000 C
   C11        1.0     0.651800      0.154574      0.315852     Biso  1.000000 C
   C12        1.0     0.647658      0.658232      0.315905     Biso  1.000000 C
   C13        1.0     0.409726      0.161507      0.339336     Biso  1.000000 C
   C14        1.0     0.399002      0.663299      0.341951     Biso  1.000000 C
   C15        1.0     0.909726      0.161507      0.339336     Biso  1.000000 C
   C16        1.0     0.899002      0.663299      0.341951     Biso  1.000000 C
   C17        1.0     0.148450      0.399184      0.317328     Biso  1.000000 C
   C18        1.0     0.159203      0.898603      0.323705     Biso  1.000000 C
   C19        1.0     0.648450      0.399184      0.317328     Biso  1.000000 C
   C20        1.0     0.659203      0.898603      0.323705     Biso  1.000000 C
   C21        1.0     0.397790      0.403927      0.343885     Biso  1.000000 C
   C22        1.0     0.401570      0.905940      0.347879     Biso  1.000000 C
   C23        1.0     0.897790      0.403927      0.343885     Biso  1.000000 C
   C24        1.0     0.901570      0.905940      0.347879     Biso  1.000000 C
   N1         1.0     0.189335      0.279843      0.310240     Biso  1.000000 N
   N2         1.0     0.189513      0.781185      0.311715     Biso  1.000000 N
   N3         1.0     0.689335      0.279843      0.310240     Biso  1.000000 N
   N4         1.0     0.689513      0.781185      0.311715     Biso  1.000000 N
   N5         1.0     0.439900      0.281686      0.350218     Biso  1.000000 N
   N6         1.0     0.439169      0.779035      0.351238     Biso  1.000000 N
   N7         1.0     0.939900      0.281686      0.350218     Biso  1.000000 N
   N8         1.0     0.939169      0.779035      0.351238     Biso  1.000000 N
   N9         1.0     0.204866      0.030703      0.317710     Biso  1.000000 N
   N10        1.0     0.195341      0.529389      0.319967     Biso  1.000000 N
   N11        1.0     0.704866      0.030703      0.317710     Biso  1.000000 N
   N12        1.0     0.695341      0.529389      0.319967     Biso  1.000000 N
   N13        1.0     0.445669      0.532163      0.339111     Biso  1.000000 N
   N14        1.0     0.454427      0.029267      0.345833     Biso  1.000000 N
   N15        1.0     0.945669      0.532163      0.339111     Biso  1.000000 N
   N16        1.0     0.954427      0.029267      0.345833     Biso  1.000000 N
   N17        1.0     0.068702      0.136900      0.319740     Biso  1.000000 N
   N18        1.0     0.063516      0.652188      0.317001     Biso  1.000000 N
   N19        1.0     0.568702      0.136900      0.319740     Biso  1.000000 N
   N20        1.0     0.563516      0.652188      0.317001     Biso  1.000000 N
   N21        1.0     0.337625      0.148361      0.321158     Biso  1.000000 N
   N22        1.0     0.317208      0.654760      0.333581     Biso  1.000000 N
   N23        1.0     0.837625      0.148361      0.321158     Biso  1.000000 N
   N24        1.0     0.817208      0.654760      0.333581     Biso  1.000000 N
   N25        1.0     0.065718      0.407382      0.323456     Biso  1.000000 N
   N26        1.0     0.086914      0.909351      0.341790     Biso  1.000000 N
   N27        1.0     0.565718      0.407382      0.323456     Biso  1.000000 N
   N28        1.0     0.586914      0.909351      0.341790     Biso  1.000000 N
   N29        1.0     0.313752      0.411143      0.342703     Biso  1.000000 N
   N30        1.0     0.317912      0.924323      0.345351     Biso  1.000000 N
   N31        1.0     0.813751      0.411143      0.342703     Biso  1.000000 N
   N32        1.0     0.817912      0.924323      0.345351     Biso  1.000000 N
