#======================================================================

# CRYSTAL DATA

#----------------------------------------------------------------------

data_VESTA_phase_1


_chemical_name_common                  'POSCAR\(2)                            '
_cell_length_a                         16.21730
_cell_length_b                         9.38290
_cell_length_c                         35.75960
_cell_angle_alpha                      90
_cell_angle_beta                       90
_cell_angle_gamma                      90.00050
_space_group_name_H-M_alt              'P 1'
_space_group_IT_number                 1

loop_
_space_group_symop_operation_xyz
   'x, y, z'

loop_
   _atom_site_label
   _atom_site_occupancy
   _atom_site_fract_x
   _atom_site_fract_y
   _atom_site_fract_z
   _atom_site_adp_type
   _atom_site_B_iso_or_equiv
   _atom_site_type_symbol
   C1         1.0     0.018211      0.447175      0.154149     Biso  1.000000 C
   C2         1.0     0.018212      0.947171      0.154150     Biso  1.000000 C
   C3         1.0     0.518211      0.447175      0.154149     Biso  1.000000 C
   C4         1.0     0.518212      0.947171      0.154150     Biso  1.000000 C
   C5         1.0     0.268230      0.956779      0.152155     Biso  1.000000 C
   C6         1.0     0.268230      0.456781      0.152155     Biso  1.000000 C
   C7         1.0     0.768230      0.956779      0.152155     Biso  1.000000 C
   C8         1.0     0.768230      0.456781      0.152155     Biso  1.000000 C
   C9         1.0     0.131456      0.077571      0.139082     Biso  1.000000 C
   C10        1.0     0.131456      0.577572      0.139082     Biso  1.000000 C
   C11        1.0     0.631456      0.077571      0.139082     Biso  1.000000 C
   C12        1.0     0.631456      0.577572      0.139082     Biso  1.000000 C
   C13        1.0     0.386146      0.081968      0.159679     Biso  1.000000 C
   C14        1.0     0.386146      0.581968      0.159679     Biso  1.000000 C
   C15        1.0     0.886146      0.081968      0.159679     Biso  1.000000 C
   C16        1.0     0.886146      0.581968      0.159679     Biso  1.000000 C
   C17        1.0     0.135962      0.321642      0.146649     Biso  1.000000 C
   C18        1.0     0.135963      0.821640      0.146649     Biso  1.000000 C
   C19        1.0     0.635962      0.321642      0.146649     Biso  1.000000 C
   C20        1.0     0.635963      0.821640      0.146649     Biso  1.000000 C
   C21        1.0     0.381486      0.326224      0.167269     Biso  1.000000 C
   C22        1.0     0.381486      0.826223      0.167269     Biso  1.000000 C
   C23        1.0     0.881486      0.326224      0.167269     Biso  1.000000 C
   C24        1.0     0.881486      0.826223      0.167269     Biso  1.000000 C
   C25        1.0     0.023281      0.312367      0.254093     Biso  1.000000 C
   C26        1.0     0.273047      0.568515      0.262118     Biso  1.000000 C
   C27        1.0     0.773047      0.568515      0.262118     Biso  1.000000 C
   C28        1.0     0.023281      0.812367      0.254093     Biso  1.000000 C
   C29        1.0     0.905283      0.429936      0.263903     Biso  1.000000 C
   C30        1.0     0.158112      0.687846      0.245956     Biso  1.000000 C
   C31        1.0     0.658112      0.687846      0.245956     Biso  1.000000 C
   C32        1.0     0.905283      0.929932      0.263903     Biso  1.000000 C
   C33        1.0     0.908233      0.193118      0.269800     Biso  1.000000 C
   C34        1.0     0.155291      0.451059      0.251887     Biso  1.000000 C
   C35        1.0     0.655291      0.451059      0.251887     Biso  1.000000 C
   C36        1.0     0.908233      0.693119      0.269800     Biso  1.000000 C
   C37        1.0     0.523281      0.812367      0.254093     Biso  1.000000 C
   C38        1.0     0.773048      0.068515      0.262118     Biso  1.000000 C
   C39        1.0     0.273048      0.068515      0.262118     Biso  1.000000 C
   C40        1.0     0.523281      0.312367      0.254093     Biso  1.000000 C
   C41        1.0     0.405283      0.929942      0.263903     Biso  1.000000 C
   C42        1.0     0.658112      0.187847      0.245956     Biso  1.000000 C
   C43        1.0     0.158112      0.187847      0.245956     Biso  1.000000 C
   C44        1.0     0.405283      0.429936      0.263903     Biso  1.000000 C
   C45        1.0     0.408233      0.693119      0.269800     Biso  1.000000 C
   C46        1.0     0.655291      0.951058      0.251887     Biso  1.000000 C
   C47        1.0     0.155291      0.951058      0.251887     Biso  1.000000 C
   C48        1.0     0.408233      0.193118      0.269800     Biso  1.000000 C
   N1         1.0     0.170861      0.203383      0.135164     Biso  1.000000 N
   N2         1.0     0.170861      0.703383      0.135164     Biso  1.000000 N
   N3         1.0     0.670861      0.203383      0.135164     Biso  1.000000 N
   N4         1.0     0.670861      0.703383      0.135164     Biso  1.000000 N
   N5         1.0     0.420708      0.200172      0.171468     Biso  1.000000 N
   N6         1.0     0.420708      0.700173      0.171468     Biso  1.000000 N
   N7         1.0     0.920708      0.200172      0.171468     Biso  1.000000 N
   N8         1.0     0.920708      0.700173      0.171468     Biso  1.000000 N
   N9         1.0     0.181260      0.952959      0.144127     Biso  1.000000 N
   N10        1.0     0.181261      0.452958      0.144127     Biso  1.000000 N
   N11        1.0     0.681260      0.952959      0.144127     Biso  1.000000 N
   N12        1.0     0.681261      0.452958      0.144127     Biso  1.000000 N
   N13        1.0     0.431221      0.450608      0.161932     Biso  1.000000 N
   N14        1.0     0.431221      0.950609      0.161932     Biso  1.000000 N
   N15        1.0     0.931221      0.450608      0.161932     Biso  1.000000 N
   N16        1.0     0.931221      0.950609      0.161932     Biso  1.000000 N
   N17        1.0     0.049917      0.064844      0.138145     Biso  1.000000 N
   N18        1.0     0.049917      0.564843      0.138145     Biso  1.000000 N
   N19        1.0     0.549917      0.064844      0.138145     Biso  1.000000 N
   N20        1.0     0.549917      0.564843      0.138145     Biso  1.000000 N
   N21        1.0     0.309725      0.073169      0.145140     Biso  1.000000 N
   N22        1.0     0.309724      0.573167      0.145140     Biso  1.000000 N
   N23        1.0     0.809725      0.073169      0.145140     Biso  1.000000 N
   N24        1.0     0.809724      0.573167      0.145140     Biso  1.000000 N
   N25        1.0     0.059533      0.330525      0.161080     Biso  1.000000 N
   N26        1.0     0.059532      0.830528      0.161080     Biso  1.000000 N
   N27        1.0     0.559533      0.330525      0.161080     Biso  1.000000 N
   N28        1.0     0.559532      0.830528      0.161080     Biso  1.000000 N
   N29        1.0     0.299900      0.339056      0.168276     Biso  1.000000 N
   N30        1.0     0.299899      0.839057      0.168276     Biso  1.000000 N
   N31        1.0     0.799900      0.339056      0.168276     Biso  1.000000 N
   N32        1.0     0.799899      0.839057      0.168276     Biso  1.000000 N
   N33        1.0     0.867420      0.314107      0.276546     Biso  1.000000 N
   N34        1.0     0.117940      0.566525      0.238360     Biso  1.000000 N
   N35        1.0     0.617940      0.566525      0.238360     Biso  1.000000 N
   N36        1.0     0.867420      0.814107      0.276546     Biso  1.000000 N
   N37        1.0     0.112085      0.316828      0.248807     Biso  1.000000 N
   N38        1.0     0.362103      0.564014      0.267155     Biso  1.000000 N
   N39        1.0     0.862103      0.564014      0.267155     Biso  1.000000 N
   N40        1.0     0.112085      0.816827      0.248807     Biso  1.000000 N
   N41        1.0     0.979338      0.430401      0.247137     Biso  1.000000 N
   N42        1.0     0.239889      0.690207      0.250403     Biso  1.000000 N
   N43        1.0     0.739889      0.690207      0.250403     Biso  1.000000 N
   N44        1.0     0.979338      0.930401      0.247137     Biso  1.000000 N
   N45        1.0     0.990350      0.190781      0.266211     Biso  1.000000 N
   N46        1.0     0.228801      0.450740      0.269120     Biso  1.000000 N
   N47        1.0     0.728801      0.450740      0.269120     Biso  1.000000 N
   N48        1.0     0.990350      0.690781      0.266211     Biso  1.000000 N
   N49        1.0     0.367420      0.814107      0.276546     Biso  1.000000 N
   N50        1.0     0.617940      0.066525      0.238360     Biso  1.000000 N
   N51        1.0     0.117940      0.066525      0.238360     Biso  1.000000 N
   N52        1.0     0.367420      0.314107      0.276546     Biso  1.000000 N
   N53        1.0     0.612085      0.816827      0.248807     Biso  1.000000 N
   N54        1.0     0.862103      0.064014      0.267155     Biso  1.000000 N
   N55        1.0     0.362103      0.064014      0.267155     Biso  1.000000 N
   N56        1.0     0.612085      0.316828      0.248807     Biso  1.000000 N
   N57        1.0     0.479338      0.930401      0.247137     Biso  1.000000 N
   N58        1.0     0.739888      0.190202      0.250403     Biso  1.000000 N
   N59        1.0     0.239888      0.190212      0.250403     Biso  1.000000 N
   N60        1.0     0.479338      0.430401      0.247137     Biso  1.000000 N
   N61        1.0     0.490350      0.690781      0.266211     Biso  1.000000 N
   N62        1.0     0.728801      0.950741      0.269120     Biso  1.000000 N
   N63        1.0     0.228801      0.950741      0.269120     Biso  1.000000 N
   N64        1.0     0.490350      0.190781      0.266211     Biso  1.000000 N
